@<TRIPOS>MOLECULE
MOL
   69    73     1     0     0
SMALL
bcc


@<TRIPOS>ATOM
      1 C4           1.6000    20.6090    45.7480 ca       809 MOL       0.535200
      2 C5           1.9880    21.9770    45.5320 ca       809 MOL      -0.243000
      3 C6           1.4030    22.9560    46.3500 ca       809 MOL       0.482200
      4 N1           0.5390    22.6100    47.3250 nb       809 MOL      -0.688000
      5 N3           0.7350    20.3370    46.7720 nb       809 MOL      -0.743000
      6 CAT         -1.2470    15.6490    52.3740 c3       809 MOL       0.208800
      7 CAU         -0.9130    14.2220    52.8240 c3       809 MOL      -0.111400
      8 CAV         -1.8160    13.1810    52.1500 c3       809 MOL       0.143100
      9 OAW         -1.3480    11.8820    52.4200 oh       809 MOL      -0.597800
     10 CAX         -1.8950    13.3980    50.6180 c3       809 MOL      -0.111400
     11 CAY         -1.0610    14.5860    50.1030 c3       809 MOL       0.208800
     12 NAS         -1.2740    15.7930    50.9090 nh       809 MOL      -0.666000
     13 CAR         -1.2150    17.1270    50.3250 ca       809 MOL       0.240600
     14 CAZ         -1.1480    18.2690    51.1580 ca       809 MOL      -0.275000
     15 CBA         -0.9550    19.5590    50.6300 ca       809 MOL       0.169100
     16 OBB         -0.8310    20.6470    51.4440 os       809 MOL      -0.344900
     17 CBC         -0.8660    20.6250    52.8240 c3       809 MOL       0.115700
     18 CAQ         -1.1560    17.3410    48.9240 ca       809 MOL      -0.232000
     19 CAP         -0.9730    18.6210    48.4010 ca       809 MOL      -0.036000
     20 CAO         -0.8380    19.7310    49.2390 ca       809 MOL      -0.009400
     21 NAN         -0.5690    21.0370    48.7230 nh       809 MOL      -0.644300
     22 C2           0.2010    21.3240    47.5540 ca       809 MOL       0.906900
     23 NBG          2.9910    22.3800    44.5740 n        809 MOL      -0.382000
     24 CBH          3.8450    23.5220    44.8820 c3       809 MOL       0.065300
     25 CAB          3.0560    21.8140    43.3200 c        809 MOL       0.674500
     26 OAA          3.8750    22.2190    42.5070 o        809 MOL      -0.555500
     27 CAC          2.0750    20.7780    42.8950 c3       809 MOL      -0.182400
     28 CAD          2.2780    19.4590    43.6310 c3       809 MOL       0.120800
     29 NAE          2.3250    19.5140    45.1100 n4       809 MOL      -0.673100
     30 CAF          2.1420    18.1810    45.7480 c3       809 MOL       0.148500
     31 CAG          3.2840    17.1810    45.4510 c3       809 MOL      -0.100900
     32 CAH          2.6200    15.8170    45.5330 c3       809 MOL      -0.092400
     33 CAI          1.3170    16.0740    44.7920 c3       809 MOL      -0.092400
     34 CAJ          0.8400    17.4000    45.3920 c3       809 MOL      -0.100900
     35 HC6          1.6630    24.0020    46.2390 h4       809 MOL       0.063100
     36 HAT1        -0.4340    16.2650    52.8110 h1       809 MOL       0.050200
     37 HAT2        -2.2270    15.9730    52.7870 h1       809 MOL       0.050200
     38 HAU1        -0.9880    14.1480    53.9310 hc       809 MOL       0.067700
     39 HAU2         0.1390    14.0100    52.5380 hc       809 MOL       0.067700
     40 HCAV        -2.8490    13.2830    52.5530 h1       809 MOL       0.041700
     41 HOAW        -1.2120    11.8050    53.4010 ho       809 MOL       0.406000
     42 HAX1        -2.9610    13.5620    50.3500 hc       809 MOL       0.067700
     43 HAX2        -1.5680    12.4840    50.0710 hc       809 MOL       0.067700
     44 HAY1        -1.3140    14.6950    49.0390 h1       809 MOL       0.050200
     45 HAY2         0.0150    14.3240    50.1710 h1       809 MOL       0.050200
     46 HCAZ        -1.2030    18.1650    52.2270 ha       809 MOL       0.151000
     47 HBC1        -0.7420    21.6580    53.2080 h1       809 MOL       0.054700
     48 HBC2        -1.8440    20.2340    53.1760 h1       809 MOL       0.054700
     49 HBC3        -0.0360    20.0020    53.2250 h1       809 MOL       0.054700
     50 HCAQ        -1.2250    16.5420    48.2150 ha       809 MOL       0.144000
     51 HCAP        -0.9420    18.7340    47.3310 ha       809 MOL       0.138000
     52 HNAN        -0.7370    21.8410    49.3480 hn       809 MOL       0.471800
     53 HBH1         4.8220    23.4640    44.3560 h1       809 MOL       0.067700
     54 HBH2         3.3350    24.4700    44.6090 h1       809 MOL       0.067700
     55 HBH3         4.0920    23.5320    45.9650 h1       809 MOL       0.067700
     56 HAC1         2.1940    20.5750    41.8060 hc       809 MOL       0.113200
     57 HAC2         1.0470    21.1710    43.0430 hc       809 MOL       0.113200
     58 HAD1         3.2340    19.0380    43.2470 hx       809 MOL       0.111200
     59 HAD2         1.4800    18.7800    43.2640 hx       809 MOL       0.111200
     60 HCAF         2.1550    18.2850    46.8580 hx       809 MOL       0.115700
     61 HAG1         4.1630    17.3050    46.1200 hc       809 MOL       0.080950
     62 HAG2         3.6350    17.2790    44.4070 hc       809 MOL       0.080950
     63 HAH1         2.4020    15.5610    46.5930 hc       809 MOL       0.065200
     64 HAH2         3.2350    15.0070    45.0790 hc       809 MOL       0.065200
     65 HAI1         0.5780    15.2460    44.8830 hc       809 MOL       0.065200
     66 HAI2         1.5490    16.2230    43.7150 hc       809 MOL       0.065200
     67 HAJ1         0.0760    17.9200    44.7760 hc       809 MOL       0.080950
     68 HAJ2         0.3560    17.1250    46.3510 hc       809 MOL       0.080950
     69 H            3.3050    19.7850    45.2920 hn       809 MOL       0.456800
@<TRIPOS>BOND
     1     1     2 ar  
     2     1     5 ar  
     3     1    29 1   
     4     2     3 ar  
     5     2    23 1   
     6     3     4 ar  
     7     3    35 1   
     8     4    22 ar  
     9     5    22 ar  
    10     6     7 1   
    11     6    12 1   
    12     6    36 1   
    13     6    37 1   
    14     7     8 1   
    15     7    38 1   
    16     7    39 1   
    17     8     9 1   
    18     8    10 1   
    19     8    40 1   
    20     9    41 1   
    21    10    11 1   
    22    10    42 1   
    23    10    43 1   
    24    11    12 1   
    25    11    44 1   
    26    11    45 1   
    27    12    13 1   
    28    13    14 ar  
    29    13    18 ar  
    30    14    15 ar  
    31    14    46 1   
    32    15    16 1   
    33    15    20 ar  
    34    16    17 1   
    35    17    47 1   
    36    17    48 1   
    37    17    49 1   
    38    18    19 ar  
    39    18    50 1   
    40    19    20 ar  
    41    19    51 1   
    42    20    21 1   
    43    21    22 1   
    44    21    52 1   
    45    23    24 1   
    46    23    25 1   
    47    24    53 1   
    48    24    54 1   
    49    24    55 1   
    50    25    26 2   
    51    25    27 1   
    52    27    28 1   
    53    27    56 1   
    54    27    57 1   
    55    28    29 1   
    56    28    58 1   
    57    28    59 1   
    58    29    30 1   
    59    29    69 1   
    60    30    31 1   
    61    30    34 1   
    62    30    60 1   
    63    31    32 1   
    64    31    61 1   
    65    31    62 1   
    66    32    33 1   
    67    32    63 1   
    68    32    64 1   
    69    33    34 1   
    70    33    65 1   
    71    33    66 1   
    72    34    67 1   
    73    34    68 1   
@<TRIPOS>SUBSTRUCTURE
     1 MOL         1 TEMP              0 ****  ****    0 ROOT
