@<TRIPOS>MOLECULE
MOL
   64    68     1     0     0
SMALL
bcc


@<TRIPOS>ATOM
      1 C1           0.4180    18.1730    46.3940 cc       901 MOL       0.640600
      2 C2          -0.3970    19.7770    48.0010 cd       901 MOL       0.293600
      3 C3          -0.2720    18.4570    47.5610 cc       901 MOL      -0.370300
      4 C8           1.3950    21.5200    45.4590 cc       901 MOL      -0.069300
      5 C9           0.9300    22.5550    46.2820 cd       901 MOL       0.004600
      6 C11         -0.8270    21.1360    50.0420 c3       901 MOL       0.208800
      7 C12         -1.3910    20.9780    51.4640 c3       901 MOL      -0.137400
      8 C13         -0.5970    20.0310    52.3810 c3       901 MOL       0.620900
      9 O18          0.5590    16.8540    46.0020 os       901 MOL      -0.341400
     10 C20          0.7730    16.2710    42.3860 ca       901 MOL       0.025900
     11 F36         -0.0750    16.2660    41.3360 f        901 MOL      -0.125900
     12 C22          2.1540    16.0590    42.2140 ca       901 MOL       0.125100
     13 O37          2.7830    15.8750    40.9950 os       901 MOL      -0.320900
     14 C38          2.0190    15.4800    39.8570 c3       901 MOL       0.110700
     15 C24          2.9760    16.0980    43.3460 ca       901 MOL      -0.146000
     16 C23          2.4510    16.3480    44.6110 ca       901 MOL      -0.081000
     17 C19          1.0860    16.5550    44.7670 ca       901 MOL       0.040100
     18 C21          0.2480    16.5070    43.6560 ca       901 MOL       0.140900
     19 F35         -1.0760    16.7130    43.8220 f        901 MOL      -0.105900
     20 N5           0.9720    19.1350    45.6170 nd       901 MOL      -0.572800
     21 N6           0.8540    20.3930    46.0460 na       901 MOL       0.230200
     22 N7           0.2170    22.1620    47.3170 nc       901 MOL      -0.270600
     23 C4           0.1730    20.8080    47.2040 cd       901 MOL      -0.127300
     24 N10         -1.0260    19.9440    49.2390 nh       901 MOL      -0.748600
     25 F16         -1.1790    19.9330    53.5760 f        901 MOL      -0.238633
     26 F15          0.6360    20.4880    52.5750 f        901 MOL      -0.238633
     27 F14         -0.4930    18.7970    51.8860 f        901 MOL      -0.238633
     28 C17          2.2620    21.5530    44.2190 ca       901 MOL       0.004200
     29 C28          2.5810    22.7900    43.6590 ca       901 MOL      -0.127000
     30 C29          3.2880    22.8730    42.4610 ca       901 MOL      -0.105000
     31 C27          3.7350    21.7240    41.8020 ca       901 MOL      -0.139600
     32 C25          3.4880    20.4690    42.3890 ca       901 MOL      -0.025300
     33 C30          3.9300    19.1470    41.7630 c3       901 MOL      -0.071800
     34 C26          2.7690    20.4060    43.5850 ca       901 MOL      -0.109000
     35 C31          4.4760    21.8580    40.4990 c        901 MOL       0.681700
     36 O33          5.6170    21.4240    40.3890 o        901 MOL      -0.597100
     37 N32          3.8240    22.4690    39.4970 n        901 MOL      -0.543900
     38 C34          4.4350    22.6700    38.1880 cx       901 MOL       0.053700
     39 C42          5.3920    23.8320    38.0490 cx       901 MOL      -0.154400
     40 C41          4.0490    23.8680    37.3570 cx       901 MOL      -0.154400
     41 HC3         -0.6830    17.6400    48.1380 ha       901 MOL       0.171000
     42 HC9          1.1330    23.6040    46.1320 h4       901 MOL       0.188000
     43 H111         0.2410    21.3380    50.1140 h1       901 MOL       0.082700
     44 H112        -1.2430    22.0010    49.5290 h1       901 MOL       0.082700
     45 H121        -2.4190    20.6320    51.3980 hc       901 MOL       0.096200
     46 H122        -1.4340    21.9560    51.9440 hc       901 MOL       0.096200
     47 H381         2.6830    15.1710    39.0540 h1       901 MOL       0.054033
     48 H382         1.3670    14.6320    40.0750 h1       901 MOL       0.054033
     49 H383         1.4280    16.3100    39.4660 h1       901 MOL       0.054033
     50 HC24         4.0360    15.9520    43.2580 ha       901 MOL       0.165000
     51 HC23         3.0910    16.3970    45.4760 ha       901 MOL       0.162000
     52 HN10        -1.2920    19.1050    49.7350 hn       901 MOL       0.437800
     53 HC28         2.2590    23.7040    44.1340 ha       901 MOL       0.140000
     54 HC29         3.4760    23.8450    42.0430 ha       901 MOL       0.140000
     55 H301         3.1590    18.7610    41.0960 hc       901 MOL       0.058033
     56 H302         4.8640    19.2190    41.2100 hc       901 MOL       0.058033
     57 H303         4.1230    18.4080    42.5390 hc       901 MOL       0.058033
     58 HC26         2.6140    19.4210    43.9830 ha       901 MOL       0.152000
     59 HN32         2.8210    22.5740    39.5550 hn       901 MOL       0.313500
     60 HC34         4.6720    21.7420    37.6650 h1       901 MOL       0.121700
     61 H421         6.2970    23.7050    37.4620 hc       901 MOL       0.073700
     62 H422         5.5650    24.4660    38.9190 hc       901 MOL       0.073700
     63 H411         3.2760    24.5410    37.7280 hc       901 MOL       0.073700
     64 H412         4.0080    23.7500    36.2730 hc       901 MOL       0.073700
@<TRIPOS>BOND
     1     1     3 1   
     2     1     9 1   
     3     1    20 2   
     4     2     3 2   
     5     2    23 1   
     6     2    24 1   
     7     3    41 1   
     8     4     5 2   
     9     4    21 1   
    10     4    28 1   
    11     5    22 1   
    12     5    42 1   
    13     6     7 1   
    14     6    24 1   
    15     6    43 1   
    16     6    44 1   
    17     7     8 1   
    18     7    45 1   
    19     7    46 1   
    20     8    25 1   
    21     8    26 1   
    22     8    27 1   
    23     9    17 1   
    24    10    11 1   
    25    10    12 ar  
    26    10    18 ar  
    27    12    13 1   
    28    12    15 ar  
    29    13    14 1   
    30    14    47 1   
    31    14    48 1   
    32    14    49 1   
    33    15    16 ar  
    34    15    50 1   
    35    16    17 ar  
    36    16    51 1   
    37    17    18 ar  
    38    18    19 1   
    39    20    21 1   
    40    21    23 1   
    41    22    23 2   
    42    24    52 1   
    43    28    29 ar  
    44    28    34 ar  
    45    29    30 ar  
    46    29    53 1   
    47    30    31 ar  
    48    30    54 1   
    49    31    32 ar  
    50    31    35 1   
    51    32    33 1   
    52    32    34 ar  
    53    33    55 1   
    54    33    56 1   
    55    33    57 1   
    56    34    58 1   
    57    35    36 2   
    58    35    37 1   
    59    37    38 1   
    60    37    59 1   
    61    38    39 1   
    62    38    40 1   
    63    38    60 1   
    64    39    40 1   
    65    39    61 1   
    66    39    62 1   
    67    40    63 1   
    68    40    64 1   
@<TRIPOS>SUBSTRUCTURE
     1 MOL         1 TEMP              0 ****  ****    0 ROOT
