@<TRIPOS>MOLECULE
MOL
   71    75     1     0     0
SMALL
bcc


@<TRIPOS>ATOM
      1 CAT         -2.2460    15.9720    52.6740 c3         1 MOL       0.196800
      2 CAU         -1.6930    14.6660    53.2820 c3         1 MOL      -0.125400
      3 CAV         -2.1820    13.3990    52.5530 c3         1 MOL       0.142100
      4 OAY         -3.1440    12.7010    53.3180 oh         1 MOL      -0.595800
      5 CAW         -2.7440    13.7180    51.1600 c3         1 MOL      -0.125400
      6 CAX         -2.0500    14.9060    50.4570 c3         1 MOL       0.196800
      7 NAS         -1.8540    16.1380    51.2580 nh         1 MOL      -0.654000
      8 CAN         -1.4800    17.3550    50.6720 ca         1 MOL       0.190600
      9 CAO         -1.1980    18.4970    51.4400 ca         1 MOL      -0.246000
     10 CAP         -0.7670    19.7060    50.8650 ca         1 MOL       0.134100
     11 OAQ         -0.4620    20.8280    51.6140 os         1 MOL      -0.332900
     12 CAR         -0.9580    20.9250    52.9430 c3         1 MOL       0.115700
     13 CAM         -1.3440    17.4760    49.2800 ca         1 MOL      -0.220000
     14 CAL         -0.9330    18.6660    48.6930 ca         1 MOL      -0.059000
     15 CAK         -0.5850    19.7710    49.4750 ca         1 MOL       0.031600
     16 NAJ         -0.0690    20.9480    48.8950 nh         1 MOL      -0.684300
     17 CAA          0.7120    21.1260    47.7410 ca         1 MOL       0.669200
     18 CAB          1.3600    20.0420    47.1460 ca         1 MOL      -0.340300
     19 NAF          0.8280    22.3990    47.2810 nb         1 MOL      -0.743000
     20 CAE          1.5210    22.5360    46.1430 ca         1 MOL       0.480800
     21 NAI          1.7050    23.6940    45.4250 na         1 MOL      -0.294100
     22 CAH          2.4620    23.4390    44.3090 cc         1 MOL      -0.116100
     23 CAG          2.7830    22.0970    44.2750 cd         1 MOL      -0.163200
     24 CAD          2.1820    21.4960    45.4330 ca         1 MOL      -0.268100
     25 CAC          2.1120    20.2070    45.9830 ca         1 MOL       0.244600
     26 NAZ          2.7320    19.1250    45.3460 nh         1 MOL      -0.653000
     27 CBA          3.0010    17.8330    45.8230 ca         1 MOL       0.314600
     28 CBF          3.3750    17.6490    47.1590 ca         1 MOL      -0.218000
     29 CBE          3.6150    16.3740    47.6570 ca         1 MOL      -0.032000
     30 CBD          3.5300    15.2660    46.8230 ca         1 MOL      -0.199000
     31 CBC          3.2010    15.4370    45.4840 ca         1 MOL      -0.006000
     32 CBB          2.9270    16.7120    44.9760 ca         1 MOL      -0.459500
     33 SBG          2.4130    16.8190    43.2580 sy         1 MOL       1.366300
     34 OBH          2.9800    15.6610    42.5600 o          1 MOL      -0.663300
     35 OBI          2.6980    18.1740    42.7740 o          1 MOL      -0.663300
     36 CBJ          0.5340    16.6180    43.3130 c3         1 MOL      -0.260900
     37 CBL          0.1440    15.2890    43.9730 c3         1 MOL      -0.070600
     38 CBK         -0.1310    17.8310    43.9800 c3         1 MOL      -0.070600
     39 HAT1        -1.9090    16.7800    53.3170 h1         1 MOL       0.044450
     40 HAT2        -3.3360    15.9810    52.7180 h1         1 MOL       0.044450
     41 HAU1        -1.9670    14.6300    54.3370 hc         1 MOL       0.062200
     42 HAU2        -0.6030    14.7010    53.2800 hc         1 MOL       0.062200
     43 HCAV        -1.3410    12.7110    52.4440 h1         1 MOL       0.077700
     44 HOAY        -3.9070    13.2720    53.4370 ho         1 MOL       0.399000
     45 HAW1        -3.8190    13.9000    51.1900 hc         1 MOL       0.062200
     46 HAW2        -2.6310    12.8340    50.5320 hc         1 MOL       0.062200
     47 HAX1        -2.6900    15.1620    49.6140 h1         1 MOL       0.044450
     48 HAX2        -1.0890    14.5920    50.0450 h1         1 MOL       0.044450
     49 HCAO        -1.2860    18.4610    52.5100 ha         1 MOL       0.143000
     50 HAR1        -0.8210    21.9460    53.2980 h1         1 MOL       0.047033
     51 HAR2        -2.0270    20.7090    52.9940 h1         1 MOL       0.047033
     52 HAR3        -0.4240    20.2560    53.6180 h1         1 MOL       0.047033
     53 HCAM        -1.5520    16.6500    48.6200 ha         1 MOL       0.138000
     54 HCAL        -0.8730    18.7060    47.6160 ha         1 MOL       0.150000
     55 HNAJ        -0.2460    21.7890    49.4250 hn         1 MOL       0.424800
     56 HCAB         1.2800    19.0620    47.5810 ha         1 MOL       0.156000
     57 HNAI         1.3460    24.6160    45.6460 hn         1 MOL       0.308700
     58 HCAH         2.7010    24.2440    43.6300 h4         1 MOL       0.169000
     59 HCAG         3.3680    21.6140    43.5080 ha         1 MOL       0.166000
     60 HNAZ         2.8570    19.2340    44.3470 hn         1 MOL       0.479800
     61 HCBF         3.4770    18.4930    47.8240 ha         1 MOL       0.158000
     62 HCBE         3.8740    16.2410    48.6890 ha         1 MOL       0.135000
     63 HCBD         3.7220    14.2770    47.2130 ha         1 MOL       0.142000
     64 HCBC         3.1340    14.5650    44.8490 ha         1 MOL       0.157000
     65 HCBJ         0.2540    16.5920    42.2660 h1         1 MOL       0.112700
     66 HBL1        -0.9370    15.1810    43.9740 hc         1 MOL       0.048867
     67 HBL2         0.5670    14.4360    43.4430 hc         1 MOL       0.048867
     68 HBL3         0.4660    15.2370    45.0130 hc         1 MOL       0.048867
     69 HBK1        -1.2060    17.8150    43.8020 hc         1 MOL       0.048867
     70 HBK2         0.0360    17.8460    45.0580 hc         1 MOL       0.048867
     71 HBK3         0.2380    18.7720    43.5730 hc         1 MOL       0.048867
@<TRIPOS>BOND
     1     1     2 1   
     2     1     7 1   
     3     1    39 1   
     4     1    40 1   
     5     2     3 1   
     6     2    41 1   
     7     2    42 1   
     8     3     4 1   
     9     3     5 1   
    10     3    43 1   
    11     4    44 1   
    12     5     6 1   
    13     5    45 1   
    14     5    46 1   
    15     6     7 1   
    16     6    47 1   
    17     6    48 1   
    18     7     8 1   
    19     8     9 ar  
    20     8    13 ar  
    21     9    10 ar  
    22     9    49 1   
    23    10    11 1   
    24    10    15 ar  
    25    11    12 1   
    26    12    50 1   
    27    12    51 1   
    28    12    52 1   
    29    13    14 ar  
    30    13    53 1   
    31    14    15 ar  
    32    14    54 1   
    33    15    16 1   
    34    16    17 1   
    35    16    55 1   
    36    17    18 ar  
    37    17    19 ar  
    38    18    25 ar  
    39    18    56 1   
    40    19    20 ar  
    41    20    21 1   
    42    20    24 ar  
    43    21    22 1   
    44    21    57 1   
    45    22    23 2   
    46    22    58 1   
    47    23    24 1   
    48    23    59 1   
    49    24    25 ar  
    50    25    26 1   
    51    26    27 1   
    52    26    60 1   
    53    27    28 ar  
    54    27    32 ar  
    55    28    29 ar  
    56    28    61 1   
    57    29    30 ar  
    58    29    62 1   
    59    30    31 ar  
    60    30    63 1   
    61    31    32 ar  
    62    31    64 1   
    63    32    33 1   
    64    33    34 2   
    65    33    35 2   
    66    33    36 1   
    67    36    37 1   
    68    36    38 1   
    69    36    65 1   
    70    37    66 1   
    71    37    67 1   
    72    37    68 1   
    73    38    69 1   
    74    38    70 1   
    75    38    71 1   
@<TRIPOS>SUBSTRUCTURE
     1 MOL         1 TEMP              0 ****  ****    0 ROOT
