@<TRIPOS>MOLECULE
MOL
   89    94     1     0     0
SMALL
bcc


@<TRIPOS>ATOM
      1 C1           2.3660    21.9380    44.0580 c3      1796 MOL      -0.016100
      2 C2           2.4010    22.9130    45.2680 c3      1796 MOL      -0.025100
      3 C3           2.2720    20.4880    44.5500 cc      1796 MOL      -0.133600
      4 C4           1.6670    20.1990    45.7610 cd      1796 MOL      -0.219800
      5 N5           1.7270    18.8390    45.9040 na      1796 MOL       0.147400
      6 N6           2.3420    18.2610    44.8850 nd      1796 MOL      -0.485800
      7 C7           2.6970    19.2340    44.0630 cc      1796 MOL       0.251800
      8 C8           3.4410    19.0120    42.8560 c       1796 MOL       0.600600
      9 N9           3.5420    17.7080    42.5290 n       1796 MOL      -0.462100
     10 O10          3.9230    19.9370    42.1990 o       1796 MOL      -0.588100
     11 C11          1.1820    17.9920    46.9510 c3      1796 MOL       0.039600
     12 C12          1.0780    21.2190    46.6350 ca      1796 MOL       0.553800
     13 C13          1.3790    22.5550    46.3500 ca      1796 MOL      -0.307900
     14 C14          0.7370    23.4850    47.1630 ca      1796 MOL       0.461200
     15 N15         -0.0810    23.1430    48.1930 nb      1796 MOL      -0.710000
     16 C16         -0.2660    21.8170    48.4020 ca      1796 MOL       0.871900
     17 N17          0.2820    20.8360    47.6530 nb      1796 MOL      -0.747000
     18 N18         -1.0220    21.4520    49.5150 nh      1796 MOL      -0.727300
     19 C19         -1.2250    20.1820    50.0840 ca      1796 MOL       0.251600
     20 C20         -1.1750    20.0840    51.4770 ca      1796 MOL      -0.000900
     21 C21         -1.3640    18.8360    52.0860 ca      1796 MOL      -0.023000
     22 C22         -1.5870    17.6830    51.3220 ca      1796 MOL      -0.199600
     23 C23         -1.6280    17.7940    49.9250 ca      1796 MOL      -0.061000
     24 C24         -1.4620    19.0360    49.3130 ca      1796 MOL      -0.171000
     25 O25         -0.8910    21.2430    52.1750 os      1796 MOL      -0.366900
     26 C26         -1.8010    16.3640    52.0210 c       1796 MOL       0.695700
     27 N27         -1.3700    15.2590    51.3820 n       1796 MOL      -0.585900
     28 O28         -2.3310    16.3320    53.1330 o       1796 MOL      -0.593100
     29 C29         -1.4970    13.8970    51.9080 c3      1796 MOL       0.104700
     30 C30         -0.4950    12.8930    51.2970 c3      1796 MOL      -0.131400
     31 C31         -0.6840    11.4460    51.7910 c3      1796 MOL       0.114800
     32 N32         -2.1500    11.0240    51.5500 n4      1796 MOL      -0.686400
     33 C33         -3.1150    11.9120    52.3600 c3      1796 MOL       0.114800
     34 C34         -2.9510    13.3740    51.9140 c3      1796 MOL      -0.131400
     35 C35         -2.3490     9.5440    51.9400 c3      1796 MOL       0.084100
     36 C36         -1.2910    21.3910    53.5260 c3      1796 MOL       0.812700
     37 F37         -0.4640    20.7460    54.3480 f       1796 MOL      -0.208633
     38 F38         -2.5470    21.0000    53.7260 f       1796 MOL      -0.208633
     39 F39         -1.2430    22.6910    53.7930 f       1796 MOL      -0.208633
     40 C40          4.2130    17.2430    41.4060 ca      1796 MOL       0.023600
     41 C41          5.5840    16.9560    41.4970 ca      1796 MOL      -0.064300
     42 C42          6.2550    16.5350    40.3410 ca      1796 MOL      -0.128000
     43 C43          5.5700    16.4010    39.1340 ca      1796 MOL      -0.123000
     44 C44          4.2030    16.6600    39.0690 ca      1796 MOL      -0.128000
     45 C45          3.5000    17.0700    40.2120 ca      1796 MOL      -0.064300
     46 C46          1.9840    17.3120    40.1910 c3      1796 MOL      -0.043100
     47 C47          1.3830    17.4840    38.8130 c3      1796 MOL      -0.092600
     48 C48          6.2910    17.1110    42.8530 c3      1796 MOL      -0.043100
     49 C49          7.7890    16.8480    42.8890 c3      1796 MOL      -0.092600
     50 H1_1         3.2510    22.0980    43.4430 hc      1796 MOL       0.084700
     51 H1_2         1.5080    22.1760    43.4300 hc      1796 MOL       0.084700
     52 H2_1         2.2640    23.9410    44.9340 hc      1796 MOL       0.064700
     53 H2_2         3.3960    22.8800    45.7130 hc      1796 MOL       0.064700
     54 HN9          3.1010    17.0220    43.1240 hn      1796 MOL       0.323500
     55 H111         1.6730    17.0170    46.9610 h1      1796 MOL       0.066700
     56 H112         1.3470    18.4690    47.9110 h1      1796 MOL       0.066700
     57 H113         0.1120    17.8590    46.7860 h1      1796 MOL       0.066700
     58 HC14         0.9390    24.5260    47.0260 h4      1796 MOL       0.044100
     59 HN18        -1.2430    22.2210    50.1330 hn      1796 MOL       0.479800
     60 HC21        -1.3230    18.7560    53.1610 ha      1796 MOL       0.179000
     61 HC23        -1.8140    16.9300    49.3040 ha      1796 MOL       0.131000
     62 HC24        -1.5310    19.1000    48.2380 ha      1796 MOL       0.169000
     63 HN27        -0.8400    15.3700    50.5300 hn      1796 MOL       0.318500
     64 HC29        -1.2140    13.9340    52.9640 h1      1796 MOL       0.107700
     65 H301         0.5280    13.2110    51.5050 hc      1796 MOL       0.089700
     66 H302        -0.6110    12.8900    50.2120 hc      1796 MOL       0.089700
     67 H311        -0.4880    11.3470    52.8600 hx      1796 MOL       0.105450
     68 H312        -0.0500    10.7470    51.2430 hx      1796 MOL       0.105450
     69 HN32        -2.3590    11.1390    50.5670 hn      1796 MOL       0.446800
     70 H331        -2.8690    11.7780    53.4150 hx      1796 MOL       0.105450
     71 H332        -4.1270    11.5470    52.1760 hx      1796 MOL       0.105450
     72 H341        -3.3350    13.4620    50.9030 hc      1796 MOL       0.089700
     73 H342        -3.5810    14.0030    52.5450 hc      1796 MOL       0.089700
     74 H351        -3.3870     9.2880    51.7250 hx      1796 MOL       0.105700
     75 H352        -1.6710     8.9530    51.3230 hx      1796 MOL       0.105700
     76 H353        -2.1200     9.4350    53.0020 hx      1796 MOL       0.105700
     77 HC42         7.3100    16.3070    40.3620 ha      1796 MOL       0.139000
     78 HC43         6.0980    16.0780    38.2480 ha      1796 MOL       0.135000
     79 HC44         3.7020    16.5240    38.1220 ha      1796 MOL       0.139000
     80 H461         1.7650    18.2330    40.7260 hc      1796 MOL       0.053950
     81 H462         1.4770    16.5140    40.7350 hc      1796 MOL       0.053950
     82 H471         0.3720    17.8640    38.8620 hc      1796 MOL       0.037367
     83 H472         1.9740    18.2310    38.3010 hc      1796 MOL       0.037367
     84 H473         1.3900    16.5600    38.2360 hc      1796 MOL       0.037367
     85 H481         5.8010    16.4570    43.5760 hc      1796 MOL       0.053950
     86 H482         6.1350    18.1320    43.2010 hc      1796 MOL       0.053950
     87 H491         8.1910    17.0210    43.8880 hc      1796 MOL       0.037367
     88 H492         8.0110    15.8190    42.6180 hc      1796 MOL       0.037367
     89 H493         8.3050    17.5170    42.2020 hc      1796 MOL       0.037367
@<TRIPOS>BOND
     1     1     2 1   
     2     1     3 1   
     3     1    50 1   
     4     1    51 1   
     5     2    13 1   
     6     2    52 1   
     7     2    53 1   
     8     3     4 2   
     9     3     7 1   
    10     4     5 1   
    11     4    12 1   
    12     5     6 1   
    13     5    11 1   
    14     6     7 2   
    15     7     8 1   
    16     8     9 1   
    17     8    10 2   
    18     9    40 1   
    19     9    54 1   
    20    11    55 1   
    21    11    56 1   
    22    11    57 1   
    23    12    13 ar  
    24    12    17 ar  
    25    13    14 ar  
    26    14    15 ar  
    27    14    58 1   
    28    15    16 ar  
    29    16    17 ar  
    30    16    18 1   
    31    18    19 1   
    32    18    59 1   
    33    19    20 ar  
    34    19    24 ar  
    35    20    21 ar  
    36    20    25 1   
    37    21    22 ar  
    38    21    60 1   
    39    22    23 ar  
    40    22    26 1   
    41    23    24 ar  
    42    23    61 1   
    43    24    62 1   
    44    25    36 1   
    45    26    27 1   
    46    26    28 2   
    47    27    29 1   
    48    27    63 1   
    49    29    30 1   
    50    29    34 1   
    51    29    64 1   
    52    30    31 1   
    53    30    65 1   
    54    30    66 1   
    55    31    32 1   
    56    31    67 1   
    57    31    68 1   
    58    32    33 1   
    59    32    35 1   
    60    32    69 1   
    61    33    34 1   
    62    33    70 1   
    63    33    71 1   
    64    34    72 1   
    65    34    73 1   
    66    35    74 1   
    67    35    75 1   
    68    35    76 1   
    69    36    37 1   
    70    36    38 1   
    71    36    39 1   
    72    40    41 ar  
    73    40    45 ar  
    74    41    42 ar  
    75    41    48 1   
    76    42    43 ar  
    77    42    77 1   
    78    43    44 ar  
    79    43    78 1   
    80    44    45 ar  
    81    44    79 1   
    82    45    46 1   
    83    46    47 1   
    84    46    80 1   
    85    46    81 1   
    86    47    82 1   
    87    47    83 1   
    88    47    84 1   
    89    48    49 1   
    90    48    85 1   
    91    48    86 1   
    92    49    87 1   
    93    49    88 1   
    94    49    89 1   
@<TRIPOS>SUBSTRUCTURE
     1 MOL         1 TEMP              0 ****  ****    0 ROOT
