@<TRIPOS>MOLECULE
MOL
   49    52     1     0     0
SMALL
bcc


@<TRIPOS>ATOM
      1 OAZ          5.4160    20.5360    40.6340 o        901 MOL      -0.598100
      2 CAU          4.5030    21.3430    40.8120 c        901 MOL       0.677700
      3 NAV          4.0200    22.1200    39.8280 n        901 MOL      -0.541900
      4 CAW          4.4810    22.0370    38.4480 cx       901 MOL       0.053700
      5 CAY          4.2890    23.2250    37.5360 cx       901 MOL      -0.153900
      6 CAX          5.6620    22.8640    38.0340 cx       901 MOL      -0.153900
      7 CAR          3.8290    21.4450    42.1570 ca       901 MOL      -0.141600
      8 CAQ          3.1250    22.5950    42.5390 ca       901 MOL      -0.087500
      9 CAP          2.4730    22.6350    43.7650 ca       901 MOL      -0.132000
     10 CAO          2.4590    21.5230    44.5970 ca       901 MOL       0.010200
     11 CAT          3.2060    20.3950    44.2500 ca       901 MOL      -0.132000
     12 CAS          3.8880    20.3590    43.0390 ca       901 MOL      -0.087500
     13 CAN          1.6330    21.5930    45.8340 cc       901 MOL      -0.128300
     14 NAD          0.9140    20.5510    46.3800 na       901 MOL       0.073700
     15 CAC          0.6930    19.2590    45.9760 cc       901 MOL      -0.258600
     16 CAB         -0.1230    18.4570    46.7620 cd       901 MOL       0.408200
     17 NAA         -0.6780    18.8970    47.9140 nd       901 MOL      -0.742000
     18 CAF         -0.4650    20.1790    48.3170 cc       901 MOL       0.713200
     19 CAE          0.3190    21.0650    47.5500 cc       901 MOL      -0.193600
     20 NAL          0.6110    22.3800    47.7130 nd       901 MOL      -0.270600
     21 CAM          1.3510    22.6750    46.6700 cd       901 MOL       0.023600
     22 NAG         -1.0520    20.6440    49.5050 nh       901 MOL      -0.821900
     23 CAH         -1.7200    19.7610    50.4570 c3       901 MOL       0.198800
     24 CAI         -0.7940    19.2210    51.5660 c3       901 MOL      -0.101700
     25 CAJ         -0.1990    20.3430    52.4380 c3       901 MOL      -0.092600
     26 CAK         -1.5280    18.1930    52.4450 c3       901 MOL      -0.092600
     27 HNAV         3.1170    22.5550    39.9640 hn       901 MOL       0.311500
     28 HCAW         4.4470    21.0310    38.0320 h1       901 MOL       0.122700
     29 HAY1         3.7680    24.0910    37.9380 hc       901 MOL       0.073950
     30 HAY2         4.0460    23.0490    36.4880 hc       901 MOL       0.073950
     31 HAX1         6.3500    22.4040    37.3330 hc       901 MOL       0.073950
     32 HAX2         6.1480    23.4870    38.7850 hc       901 MOL       0.073950
     33 HCAQ         3.0670    23.4590    41.8940 ha       901 MOL       0.148500
     34 HCAP         1.9490    23.5220    44.0750 ha       901 MOL       0.143000
     35 HCAT         3.2580    19.5410    44.9070 ha       901 MOL       0.143000
     36 HCAS         4.4370    19.4640    42.7810 ha       901 MOL       0.148500
     37 HCAC         1.1300    18.9310    45.0460 h4       901 MOL       0.177000
     38 HCAB        -0.3500    17.4400    46.4770 h4       901 MOL       0.037100
     39 HCAM         1.7100    23.6810    46.5170 h4       901 MOL       0.186000
     40 HNAG        -0.7940    21.5650    49.8310 hn       901 MOL       0.438800
     41 HAH1        -2.1960    18.9370    49.9290 h1       901 MOL       0.066700
     42 HAH2        -2.5360    20.3240    50.9040 h1       901 MOL       0.066700
     43 HCAI         0.0280    18.7020    51.0800 hc       901 MOL       0.063700
     44 HAJ1         0.4900    19.9430    53.1820 hc       901 MOL       0.036867
     45 HAJ2         0.3550    21.0680    51.8440 hc       901 MOL       0.036867
     46 HAJ3        -0.9810    20.8880    52.9680 hc       901 MOL       0.036867
     47 HAK1        -0.8560    17.7510    53.1810 hc       901 MOL       0.036867
     48 HAK2        -2.3560    18.6540    52.9860 hc       901 MOL       0.036867
     49 HAK3        -1.9440    17.3780    51.8540 hc       901 MOL       0.036867
@<TRIPOS>BOND
     1     1     2 2   
     2     2     3 1   
     3     2     7 1   
     4     3     4 1   
     5     3    27 1   
     6     4     5 1   
     7     4     6 1   
     8     4    28 1   
     9     5     6 1   
    10     5    29 1   
    11     5    30 1   
    12     6    31 1   
    13     6    32 1   
    14     7     8 ar  
    15     7    12 ar  
    16     8     9 ar  
    17     8    33 1   
    18     9    10 ar  
    19     9    34 1   
    20    10    11 ar  
    21    10    13 1   
    22    11    12 ar  
    23    11    35 1   
    24    12    36 1   
    25    13    14 1   
    26    13    21 2   
    27    14    15 1   
    28    14    19 1   
    29    15    16 2   
    30    15    37 1   
    31    16    17 1   
    32    16    38 1   
    33    17    18 2   
    34    18    19 1   
    35    18    22 1   
    36    19    20 2   
    37    20    21 1   
    38    21    39 1   
    39    22    23 1   
    40    22    40 1   
    41    23    24 1   
    42    23    41 1   
    43    23    42 1   
    44    24    25 1   
    45    24    26 1   
    46    24    43 1   
    47    25    44 1   
    48    25    45 1   
    49    25    46 1   
    50    26    47 1   
    51    26    48 1   
    52    26    49 1   
@<TRIPOS>SUBSTRUCTURE
     1 MOL         1 TEMP              0 ****  ****    0 ROOT
